!-Generator IDFEditor 1.47
!-Option SortedOrder

!-NOTE: All comments with '!-' are ignored by the IDFEditor and are generated automatically.
!-      Use '!' comments if they need to be retained when using the IDFEditor.


!-   ===========  ALL OBJECTS IN CLASS: VERSION ===========

Version,
    8.4;                     !- Version Identifier


!-   ===========  ALL OBJECTS IN CLASS: SIMULATIONCONTROL ===========

SimulationControl,
    No,                      !- Do Zone Sizing Calculation
    No,                      !- Do System Sizing Calculation
    No,                      !- Do Plant Sizing Calculation
    No,                      !- Run Simulation for Sizing Periods
    Yes;                     !- Run Simulation for Weather File Run Periods


!-   ===========  ALL OBJECTS IN CLASS: BUILDING ===========

Building,
    Building 1,              !- Name
    ,                        !- North Axis {deg}
    ,                        !- Terrain
    ,                        !- Loads Convergence Tolerance Value
    ,                        !- Temperature Convergence Tolerance Value {deltaC}
    ,                        !- Solar Distribution
    ,                        !- Maximum Number of Warmup Days
    12;                      !- Minimum Number of Warmup Days


!-   ===========  ALL OBJECTS IN CLASS: SURFACECONVECTIONALGORITHM:INSIDE ===========

SurfaceConvectionAlgorithm:Inside,
    TARP;                    !- Algorithm


!-   ===========  ALL OBJECTS IN CLASS: SURFACECONVECTIONALGORITHM:OUTSIDE ===========

SurfaceConvectionAlgorithm:Outside,
    DOE-2;                   !- Algorithm


!-   ===========  ALL OBJECTS IN CLASS: HEATBALANCEALGORITHM ===========

HeatBalanceAlgorithm,
    ConductionTransferFunction,  !- Algorithm
    200,                     !- Surface Temperature Upper Limit {C}
    0.1,                     !- Minimum Surface Convection Heat Transfer Coefficient Value {W/m2-K}
    1000;                    !- Maximum Surface Convection Heat Transfer Coefficient Value {W/m2-K}


!-   ===========  ALL OBJECTS IN CLASS: ZONEAIRHEATBALANCEALGORITHM ===========

ZoneAirHeatBalanceAlgorithm,
    ThirdOrderBackwardDifference;  !- Algorithm


!-   ===========  ALL OBJECTS IN CLASS: TIMESTEP ===========

Timestep,
    4;                       !- Number of Timesteps per Hour


!-   ===========  ALL OBJECTS IN CLASS: PROGRAMCONTROL ===========

ProgramControl,
    2;                       !- Number of Threads Allowed


!-   ===========  ALL OBJECTS IN CLASS: SITE:LOCATION ===========

Site:Location,
    Montreal,                !- Name
    45.47,                   !- Latitude {deg}
    -73.75,                  !- Longitude {deg}
    -5,                      !- Time Zone {hr}
    36;                      !- Elevation {m}


!-   ===========  ALL OBJECTS IN CLASS: RUNPERIOD ===========

RunPeriod,
    Run Period 1,            !- Name
    1,                       !- Begin Month
    1,                       !- Begin Day of Month
    12,                      !- End Month
    31,                      !- End Day of Month
    Thursday,                !- Day of Week for Start Day
    No,                      !- Use Weather File Holidays and Special Days
    No,                      !- Use Weather File Daylight Saving Period
    No,                      !- Apply Weekend Holiday Rule
    No,                      !- Use Weather File Rain Indicators
    No,                      !- Use Weather File Snow Indicators
    1;                       !- Number of Times Runperiod to be Repeated


!-   ===========  ALL OBJECTS IN CLASS: SCHEDULETYPELIMITS ===========

ScheduleTypeLimits,
    ActivityLevel,           !- Name
    0,                       !- Lower Limit Value
    ,                        !- Upper Limit Value
    Continuous,              !- Numeric Type
    activitylevel;           !- Unit Type

ScheduleTypeLimits,
    Fraction,                !- Name
    0,                       !- Lower Limit Value
    1,                       !- Upper Limit Value
    CONTINUOUS;              !- Numeric Type

ScheduleTypeLimits,
    Fractional,              !- Name
    0,                       !- Lower Limit Value
    1,                       !- Upper Limit Value
    Continuous;              !- Numeric Type

ScheduleTypeLimits,
    Temperature,             !- Name
    ,                        !- Lower Limit Value
    ,                        !- Upper Limit Value
    Continuous,              !- Numeric Type
    temperature;             !- Unit Type


!-   ===========  ALL OBJECTS IN CLASS: SCHEDULE:DAY:INTERVAL ===========

Schedule:Day:Interval,
    Office Activity Default Schedule,  !- Name
    ActivityLevel,           !- Schedule Type Limits Name
    No,                      !- Interpolate to Timestep
    24:00,                   !- Time 1 {hh:mm}
    100;                     !- Value Until Time 1

Schedule:Day:Interval,
    Office Activity Summer Design Day,  !- Name
    ActivityLevel,           !- Schedule Type Limits Name
    No,                      !- Interpolate to Timestep
    24:00,                   !- Time 1 {hh:mm}
    100;                     !- Value Until Time 1

Schedule:Day:Interval,
    Office Activity Winter Design Day,  !- Name
    ActivityLevel,           !- Schedule Type Limits Name
    No,                      !- Interpolate to Timestep
    24:00,                   !- Time 1 {hh:mm}
    100;                     !- Value Until Time 1

Schedule:Day:Interval,
    Office Bldg Equip Default Schedule,  !- Name
    Fraction,                !- Schedule Type Limits Name
    No,                      !- Interpolate to Timestep
    08:00,                   !- Time 1 {hh:mm}
    0.4,                     !- Value Until Time 1
    12:00,                   !- Time 2 {hh:mm}
    0.9,                     !- Value Until Time 2
    13:00,                   !- Time 3 {hh:mm}
    0.8,                     !- Value Until Time 3
    17:00,                   !- Time 4 {hh:mm}
    0.9,                     !- Value Until Time 4
    18:00,                   !- Time 5 {hh:mm}
    0.8,                     !- Value Until Time 5
    20:00,                   !- Time 6 {hh:mm}
    0.6,                     !- Value Until Time 6
    22:00,                   !- Time 7 {hh:mm}
    0.5,                     !- Value Until Time 7
    24:00,                   !- Time 8 {hh:mm}
    0.4;                     !- Value Until Time 8

Schedule:Day:Interval,
    Office Bldg Equip WE Schedule,  !- Name
    Fraction,                !- Schedule Type Limits Name
    No,                      !- Interpolate to Timestep
    24:00,                   !- Time 1 {hh:mm}
    0.3;                     !- Value Until Time 1

Schedule:Day:Interval,
    Office Bldg Equip Summer Design Day,  !- Name
    Fraction,                !- Schedule Type Limits Name
    No,                      !- Interpolate to Timestep
    24:00,                   !- Time 1 {hh:mm}
    1;                       !- Value Until Time 1

Schedule:Day:Interval,
    Office Bldg Equip Winter Design Day,  !- Name
    Fraction,                !- Schedule Type Limits Name
    No,                      !- Interpolate to Timestep
    24:00,                   !- Time 1 {hh:mm}
    0;                       !- Value Until Time 1

Schedule:Day:Interval,
    Office Bldg Light Default Schedule,  !- Name
    Fraction,                !- Schedule Type Limits Name
    No,                      !- Interpolate to Timestep
    05:00,                   !- Time 1 {hh:mm}
    0.05,                    !- Value Until Time 1
    07:00,                   !- Time 2 {hh:mm}
    0.1,                     !- Value Until Time 2
    08:00,                   !- Time 3 {hh:mm}
    0.3,                     !- Value Until Time 3
    17:00,                   !- Time 4 {hh:mm}
    0.9,                     !- Value Until Time 4
    18:00,                   !- Time 5 {hh:mm}
    0.7,                     !- Value Until Time 5
    20:00,                   !- Time 6 {hh:mm}
    0.5,                     !- Value Until Time 6
    22:00,                   !- Time 7 {hh:mm}
    0.3,                     !- Value Until Time 7
    23:00,                   !- Time 8 {hh:mm}
    0.1,                     !- Value Until Time 8
    24:00,                   !- Time 9 {hh:mm}
    0.05;                    !- Value Until Time 9

Schedule:Day:Interval,
    Office Bldg Light WE Schedule,  !- Name
    Fraction,                !- Schedule Type Limits Name
    No,                      !- Interpolate to Timestep
    24:00,                   !- Time 1 {hh:mm}
    0.05;                    !- Value Until Time 1

Schedule:Day:Interval,
    Office Bldg Light Summer Design Day,  !- Name
    Fraction,                !- Schedule Type Limits Name
    No,                      !- Interpolate to Timestep
    24:00,                   !- Time 1 {hh:mm}
    1;                       !- Value Until Time 1

Schedule:Day:Interval,
    Office Bldg Light Winter Design Day,  !- Name
    Fraction,                !- Schedule Type Limits Name
    No,                      !- Interpolate to Timestep
    24:00,                   !- Time 1 {hh:mm}
    0;                       !- Value Until Time 1

Schedule:Day:Interval,
    Office Infil Quarter On Default Schedule,  !- Name
    Fraction,                !- Schedule Type Limits Name
    No,                      !- Interpolate to Timestep
    06:00,                   !- Time 1 {hh:mm}
    1,                       !- Value Until Time 1
    22:00,                   !- Time 2 {hh:mm}
    0.25,                    !- Value Until Time 2
    24:00,                   !- Time 3 {hh:mm}
    1;                       !- Value Until Time 3

Schedule:Day:Interval,
    Office Infil Quarter On WE Schedule,  !- Name
    Fraction,                !- Schedule Type Limits Name
    No,                      !- Interpolate to Timestep
    24:00,                   !- Time 1 {hh:mm}
    1;                       !- Value Until Time 1

Schedule:Day:Interval,
    Office Infil Quarter On Summer Design Day,  !- Name
    Fraction,                !- Schedule Type Limits Name
    No,                      !- Interpolate to Timestep
    06:00,                   !- Time 1 {hh:mm}
    1,                       !- Value Until Time 1
    22:00,                   !- Time 2 {hh:mm}
    0.25,                    !- Value Until Time 2
    24:00,                   !- Time 3 {hh:mm}
    1;                       !- Value Until Time 3

Schedule:Day:Interval,
    Office Infil Quarter On Winter Design Day,  !- Name
    Fraction,                !- Schedule Type Limits Name
    No,                      !- Interpolate to Timestep
    06:00,                   !- Time 1 {hh:mm}
    1,                       !- Value Until Time 1
    18:00,                   !- Time 2 {hh:mm}
    0.25,                    !- Value Until Time 2
    24:00,                   !- Time 3 {hh:mm}
    1;                       !- Value Until Time 3

Schedule:Day:Interval,
    Office Bldg Occ Default Schedule,  !- Name
    Fraction,                !- Schedule Type Limits Name
    No,                      !- Interpolate to Timestep
    06:00,                   !- Time 1 {hh:mm}
    0,                       !- Value Until Time 1
    07:00,                   !- Time 2 {hh:mm}
    0.10,                    !- Value Until Time 2
    08:00,                   !- Time 3 {hh:mm}
    0.20,                    !- Value Until Time 3
    12:00,                   !- Time 4 {hh:mm}
    0.85,                    !- Value Until Time 4
    13:00,                   !- Time 5 {hh:mm}
    0.5,                     !- Value Until Time 5
    17:00,                   !- Time 6 {hh:mm}
    0.85,                    !- Value Until Time 6
    18:00,                   !- Time 7 {hh:mm}
    0.70,                    !- Value Until Time 7
    20:00,                   !- Time 8 {hh:mm}
    0.2,                     !- Value Until Time 8
    22:00,                   !- Time 9 {hh:mm}
    0.10,                    !- Value Until Time 9
    24:00,                   !- Time 10 {hh:mm}
    0.05;                    !- Value Until Time 10

Schedule:Day:Interval,
    Office Bldg Occ WE Schedule,  !- Name
    Fraction,                !- Schedule Type Limits Name
    No,                      !- Interpolate to Timestep
    06:00,                   !- Time 1 {hh:mm}
    0,                       !- Value Until Time 1
    22:00,                   !- Time 2 {hh:mm}
    0.05,                    !- Value Until Time 2
    24:00,                   !- Time 3 {hh:mm}
    0;                       !- Value Until Time 3

Schedule:Day:Interval,
    Office Bldg Occ Summer Design Day,  !- Name
    Fraction,                !- Schedule Type Limits Name
    No,                      !- Interpolate to Timestep
    06:00,                   !- Time 1 {hh:mm}
    0,                       !- Value Until Time 1
    22:00,                   !- Time 2 {hh:mm}
    1,                       !- Value Until Time 2
    24:00,                   !- Time 3 {hh:mm}
    0.05;                    !- Value Until Time 3

Schedule:Day:Interval,
    Office Bldg Occ Winter Design Day,  !- Name
    Fraction,                !- Schedule Type Limits Name
    No,                      !- Interpolate to Timestep
    24:00,                   !- Time 1 {hh:mm}
    0;                       !- Value Until Time 1


!-   ===========  ALL OBJECTS IN CLASS: SCHEDULE:WEEK:DAILY ===========

Schedule:Week:Daily,
    Schedule:Week:Daily {7c6855d8-0146-4d0c-8d80-da3aeb8f67bb},  !- Name
    Office Bldg Occ WE Schedule,  !- Sunday Schedule:Day Name
    Office Bldg Occ Default Schedule,  !- Monday Schedule:Day Name
    Office Bldg Occ Default Schedule,  !- Tuesday Schedule:Day Name
    Office Bldg Occ Default Schedule,  !- Wednesday Schedule:Day Name
    Office Bldg Occ Default Schedule,  !- Thursday Schedule:Day Name
    Office Bldg Occ Default Schedule,  !- Friday Schedule:Day Name
    Office Bldg Occ WE Schedule,  !- Saturday Schedule:Day Name
    Office Bldg Occ WE Schedule,  !- Holiday Schedule:Day Name
    Office Bldg Occ Summer Design Day,  !- SummerDesignDay Schedule:Day Name
    Office Bldg Occ Winter Design Day,  !- WinterDesignDay Schedule:Day Name
    Office Bldg Occ Default Schedule,  !- CustomDay1 Schedule:Day Name
    Office Bldg Occ Default Schedule;  !- CustomDay2 Schedule:Day Name

Schedule:Week:Daily,
    Schedule:Week:Daily {5283e909-0d70-4c6a-9f77-9b6997dd296f},  !- Name
    Office Bldg Light WE Schedule,  !- Sunday Schedule:Day Name
    Office Bldg Light Default Schedule,  !- Monday Schedule:Day Name
    Office Bldg Light Default Schedule,  !- Tuesday Schedule:Day Name
    Office Bldg Light Default Schedule,  !- Wednesday Schedule:Day Name
    Office Bldg Light Default Schedule,  !- Thursday Schedule:Day Name
    Office Bldg Light Default Schedule,  !- Friday Schedule:Day Name
    Office Bldg Light WE Schedule,  !- Saturday Schedule:Day Name
    Office Bldg Light WE Schedule,  !- Holiday Schedule:Day Name
    Office Bldg Light Summer Design Day,  !- SummerDesignDay Schedule:Day Name
    Office Bldg Light Winter Design Day,  !- WinterDesignDay Schedule:Day Name
    Office Bldg Light Default Schedule,  !- CustomDay1 Schedule:Day Name
    Office Bldg Light Default Schedule;  !- CustomDay2 Schedule:Day Name

Schedule:Week:Daily,
    Schedule:Week:Daily {f8c092ed-a8a0-4332-a1a9-71f95a00a6fe},  !- Name
    Office Bldg Equip WE Schedule,  !- Sunday Schedule:Day Name
    Office Bldg Equip Default Schedule,  !- Monday Schedule:Day Name
    Office Bldg Equip Default Schedule,  !- Tuesday Schedule:Day Name
    Office Bldg Equip Default Schedule,  !- Wednesday Schedule:Day Name
    Office Bldg Equip Default Schedule,  !- Thursday Schedule:Day Name
    Office Bldg Equip Default Schedule,  !- Friday Schedule:Day Name
    Office Bldg Equip WE Schedule,  !- Saturday Schedule:Day Name
    Office Bldg Equip WE Schedule,  !- Holiday Schedule:Day Name
    Office Bldg Equip Summer Design Day,  !- SummerDesignDay Schedule:Day Name
    Office Bldg Equip Winter Design Day,  !- WinterDesignDay Schedule:Day Name
    Office Bldg Equip Default Schedule,  !- CustomDay1 Schedule:Day Name
    Office Bldg Equip Default Schedule;  !- CustomDay2 Schedule:Day Name

Schedule:Week:Daily,
    Schedule:Week:Daily {ad74e9a8-460e-471f-9dbc-502e6c6ce97e},  !- Name
    Office Infil Quarter On WE Schedule,  !- Sunday Schedule:Day Name
    Office Infil Quarter On Default Schedule,  !- Monday Schedule:Day Name
    Office Infil Quarter On Default Schedule,  !- Tuesday Schedule:Day Name
    Office Infil Quarter On Default Schedule,  !- Wednesday Schedule:Day Name
    Office Infil Quarter On Default Schedule,  !- Thursday Schedule:Day Name
    Office Infil Quarter On Default Schedule,  !- Friday Schedule:Day Name
    Office Infil Quarter On WE Schedule,  !- Saturday Schedule:Day Name
    Office Infil Quarter On WE Schedule,  !- Holiday Schedule:Day Name
    Office Infil Quarter On Summer Design Day,  !- SummerDesignDay Schedule:Day Name
    Office Infil Quarter On Winter Design Day,  !- WinterDesignDay Schedule:Day Name
    Office Infil Quarter On Default Schedule,  !- CustomDay1 Schedule:Day Name
    Office Infil Quarter On Default Schedule;  !- CustomDay2 Schedule:Day Name

Schedule:Week:Daily,
    Schedule:Week:Daily {f22f8e45-f71e-4bb0-92a9-5f6322425d4a},  !- Name
    Office Activity Default Schedule,  !- Sunday Schedule:Day Name
    Office Activity Default Schedule,  !- Monday Schedule:Day Name
    Office Activity Default Schedule,  !- Tuesday Schedule:Day Name
    Office Activity Default Schedule,  !- Wednesday Schedule:Day Name
    Office Activity Default Schedule,  !- Thursday Schedule:Day Name
    Office Activity Default Schedule,  !- Friday Schedule:Day Name
    Office Activity Default Schedule,  !- Saturday Schedule:Day Name
    Office Activity Default Schedule,  !- Holiday Schedule:Day Name
    Office Activity Summer Design Day,  !- SummerDesignDay Schedule:Day Name
    Office Activity Winter Design Day,  !- WinterDesignDay Schedule:Day Name
    Office Activity Default Schedule,  !- CustomDay1 Schedule:Day Name
    Office Activity Default Schedule;  !- CustomDay2 Schedule:Day Name


!-   ===========  ALL OBJECTS IN CLASS: SCHEDULE:YEAR ===========

Schedule:Year,
    Office Work Occ,         !- Name
    Fraction,                !- Schedule Type Limits Name
    Schedule:Week:Daily {7c6855d8-0146-4d0c-8d80-da3aeb8f67bb},  !- Schedule:Week Name 1
    1,                       !- Start Month 1
    1,                       !- Start Day 1
    12,                      !- End Month 1
    31;                      !- End Day 1

Schedule:Year,
    Office Bldg Light,       !- Name
    Fraction,                !- Schedule Type Limits Name
    Schedule:Week:Daily {5283e909-0d70-4c6a-9f77-9b6997dd296f},  !- Schedule:Week Name 1
    1,                       !- Start Month 1
    1,                       !- Start Day 1
    12,                      !- End Month 1
    31;                      !- End Day 1

Schedule:Year,
    Office Bldg Equip,       !- Name
    Fraction,                !- Schedule Type Limits Name
    Schedule:Week:Daily {f8c092ed-a8a0-4332-a1a9-71f95a00a6fe},  !- Schedule:Week Name 1
    1,                       !- Start Month 1
    1,                       !- Start Day 1
    12,                      !- End Month 1
    31;                      !- End Day 1

Schedule:Year,
    Office Infil Quarter On, !- Name
    Fraction,                !- Schedule Type Limits Name
    Schedule:Week:Daily {ad74e9a8-460e-471f-9dbc-502e6c6ce97e},  !- Schedule:Week Name 1
    1,                       !- Start Month 1
    1,                       !- Start Day 1
    12,                      !- End Month 1
    31;                      !- End Day 1

Schedule:Year,
    Office Activity,         !- Name
    ActivityLevel,           !- Schedule Type Limits Name
    Schedule:Week:Daily {f22f8e45-f71e-4bb0-92a9-5f6322425d4a},  !- Schedule:Week Name 1
    1,                       !- Start Month 1
    1,                       !- Start Day 1
    12,                      !- End Month 1
    31;                      !- End Day 1


!-   ===========  ALL OBJECTS IN CLASS: SCHEDULE:COMPACT ===========

Schedule:Compact,
    Heating Setback Setpoint,!- Name
    Temperature,             !- Schedule Type Limits Name
    Through: 31 Dec,         !- Field 1
    For: Weekdays SummerDesignDay WinterDesignDay,  !- Field 2
    Until: 06:00,            !- Field 3
    16,                      !- Field 4
    Until: 19:00,            !- Field 5
    21,                      !- Field 6
    Until: 24:00,            !- Field 7
    16,                      !- Field 8
    For: Weekends,           !- Field 9
    Until: 24:00,            !- Field 10
    16,                      !- Field 11
    For: Holidays AllOtherDays,  !- Field 12
    Until: 24:00,            !- Field 13
    16;                      !- Field 14

Schedule:Compact,
    Cooling Setback Setpoint,!- Name
    Temperature,             !- Schedule Type Limits Name
    Through: 31 Dec,         !- Field 1
    For: Weekdays SummerDesignDay WinterDesignDay,  !- Field 2
    Until: 06:00,            !- Field 3
    28,                      !- Field 4
    Until: 19:00,            !- Field 5
    24,                      !- Field 6
    Until: 24:00,            !- Field 7
    28,                      !- Field 8
    For: Weekends,           !- Field 9
    Until: 24:00,            !- Field 10
    28,                      !- Field 11
    For: Holidays AllOtherDays,  !- Field 12
    Until: 24:00,            !- Field 13
    28;                      !- Field 14


!-   ===========  ALL OBJECTS IN CLASS: SCHEDULE:CONSTANT ===========

Schedule:Constant,
    Test Schedule Flat 1,    !- Name
    Fraction,                !- Schedule Type Limits Name
    1;                       !- Hourly Value

Schedule:Constant,
    Test Schedule Flat 21,   !- Name
    Temperature,             !- Schedule Type Limits Name
    21;                      !- Hourly Value

Schedule:Constant,
    Test Schedule Flat 24,   !- Name
    Temperature,             !- Schedule Type Limits Name
    24;                      !- Hourly Value


!-   ===========  ALL OBJECTS IN CLASS: MATERIAL ===========

Material,
    1/2IN Gypsum,            !- Name
    Smooth,                  !- Roughness
    0.0127,                  !- Thickness {m}
    0.16,                    !- Conductivity {W/m-K}
    784.9,                   !- Density {kg/m3}
    830.000000000001,        !- Specific Heat {J/kg-K}
    0.9,                     !- Thermal Absorptance
    0.4,                     !- Solar Absorptance
    0.4;                     !- Visible Absorptance

Material,
    1IN Stucco,              !- Name
    Smooth,                  !- Roughness
    0.0253,                  !- Thickness {m}
    0.691799999999999,       !- Conductivity {W/m-K}
    1858,                    !- Density {kg/m3}
    836.999999999999,        !- Specific Heat {J/kg-K}
    0.9,                     !- Thermal Absorptance
    0.92,                    !- Solar Absorptance
    0.92;                    !- Visible Absorptance

Material,
    8IN Concrete HW,         !- Name
    MediumRough,             !- Roughness
    0.2033,                  !- Thickness {m}
    1.72959999999999,        !- Conductivity {W/m-K}
    2242.99999999999,        !- Density {kg/m3}
    836.999999999999,        !- Specific Heat {J/kg-K}
    0.9,                     !- Thermal Absorptance
    0.65,                    !- Solar Absorptance
    0.65;                    !- Visible Absorptance

Material,
    F08 Metal surface,       !- Name
    Smooth,                  !- Roughness
    0.0008,                  !- Thickness {m}
    45.2800000000001,        !- Conductivity {W/m-K}
    7823.99999999999,        !- Density {kg/m3}
    500,                     !- Specific Heat {J/kg-K}
    0.9,                     !- Thermal Absorptance
    0.7,                     !- Solar Absorptance
    0.7;                     !- Visible Absorptance

Material,
    F16 Acoustic tile,       !- Name
    MediumSmooth,            !- Roughness
    0.0191,                  !- Thickness {m}
    0.06,                    !- Conductivity {W/m-K}
    368,                     !- Density {kg/m3}
    590.000000000002,        !- Specific Heat {J/kg-K}
    0.9,                     !- Thermal Absorptance
    0.3,                     !- Solar Absorptance
    0.3;                     !- Visible Absorptance

Material,
    G01a 19mm gypsum board,  !- Name
    MediumSmooth,            !- Roughness
    0.019,                   !- Thickness {m}
    0.16,                    !- Conductivity {W/m-K}
    800,                     !- Density {kg/m3}
    1090,                    !- Specific Heat {J/kg-K}
    0.9,                     !- Thermal Absorptance
    0.4,                     !- Solar Absorptance
    0.4;                     !- Visible Absorptance

Material,
    G05 25mm wood,           !- Name
    MediumSmooth,            !- Roughness
    0.0254,                  !- Thickness {m}
    0.15,                    !- Conductivity {W/m-K}
    608,                     !- Density {kg/m3}
    1630,                    !- Specific Heat {J/kg-K}
    0.9,                     !- Thermal Absorptance
    0.5,                     !- Solar Absorptance
    0.5;                     !- Visible Absorptance

Material,
    I01 25mm insulation board,  !- Name
    MediumRough,             !- Roughness
    0.0254,                  !- Thickness {m}
    0.03,                    !- Conductivity {W/m-K}
    43,                      !- Density {kg/m3}
    1210,                    !- Specific Heat {J/kg-K}
    0.9,                     !- Thermal Absorptance
    0.6,                     !- Solar Absorptance
    0.6;                     !- Visible Absorptance

Material,
    M11 100mm lightweight concrete,  !- Name
    MediumRough,             !- Roughness
    0.1016,                  !- Thickness {m}
    0.53,                    !- Conductivity {W/m-K}
    1280,                    !- Density {kg/m3}
    840.000000000002,        !- Specific Heat {J/kg-K}
    0.9,                     !- Thermal Absorptance
    0.5,                     !- Solar Absorptance
    0.5;                     !- Visible Absorptance

Material,
    MAT-CC05 4 HW CONCRETE,  !- Name
    Rough,                   !- Roughness
    0.1016,                  !- Thickness {m}
    1.311,                   !- Conductivity {W/m-K}
    2240,                    !- Density {kg/m3}
    836.800000000001,        !- Specific Heat {J/kg-K}
    0.9,                     !- Thermal Absorptance
    0.85,                    !- Solar Absorptance
    0.85;                    !- Visible Absorptance

Material,
    Metal Decking,           !- Name
    MediumSmooth,            !- Roughness
    0.0015,                  !- Thickness {m}
    45.006,                  !- Conductivity {W/m-K}
    7680,                    !- Density {kg/m3}
    418.4,                   !- Specific Heat {J/kg-K}
    0.9,                     !- Thermal Absorptance
    0.6,                     !- Solar Absorptance
    0.6;                     !- Visible Absorptance

Material,
    Metal Roofing,           !- Name
    MediumSmooth,            !- Roughness
    0.0015,                  !- Thickness {m}
    45.006,                  !- Conductivity {W/m-K}
    7680,                    !- Density {kg/m3}
    418.4,                   !- Specific Heat {J/kg-K}
    0.9,                     !- Thermal Absorptance
    0.6,                     !- Solar Absorptance
    0.6;                     !- Visible Absorptance

Material,
    Roof Insulation [18],    !- Name
    MediumRough,             !- Roughness
    0.1693,                  !- Thickness {m}
    0.049,                   !- Conductivity {W/m-K}
    265,                     !- Density {kg/m3}
    836.800000000001,        !- Specific Heat {J/kg-K}
    0.9,                     !- Thermal Absorptance
    0.7,                     !- Solar Absorptance
    0.7;                     !- Visible Absorptance

Material,
    Roof Insulation [21],    !- Name
    MediumRough,             !- Roughness
    0.2105,                  !- Thickness {m}
    0.049,                   !- Conductivity {W/m-K}
    265,                     !- Density {kg/m3}
    836.800000000001,        !- Specific Heat {J/kg-K}
    0.9,                     !- Thermal Absorptance
    0.7,                     !- Solar Absorptance
    0.7;                     !- Visible Absorptance

Material,
    Roof Insulation [25],    !- Name
    MediumRough,             !- Roughness
    0.263,                   !- Thickness {m}
    0.049,                   !- Conductivity {W/m-K}
    265,                     !- Density {kg/m3}
    836.800000000001,        !- Specific Heat {J/kg-K}
    0.9,                     !- Thermal Absorptance
    0.7,                     !- Solar Absorptance
    0.7;                     !- Visible Absorptance

Material,
    Roof Insulation [26],    !- Name
    MediumRough,             !- Roughness
    0.2941,                  !- Thickness {m}
    0.049,                   !- Conductivity {W/m-K}
    265,                     !- Density {kg/m3}
    836.800000000001,        !- Specific Heat {J/kg-K}
    0.9,                     !- Thermal Absorptance